<?xml version="1.0" encoding="UTF-8"?>

<!-- generated on 2023-05-04 15:48:39 by Eclipse SUMO netedit Version 1.16.0
<configuration xmlns:xsi="http://www.w3.org/2001/XMLSchema-instance" xsi:noNamespaceSchemaLocation="http://sumo.dlr.de/xsd/netconvertConfiguration.xsd">

    <input>
        <sumo-net-file value="C:\Users\asd95\Sumo\ture_city\osm.net.xml"/>
    </input>

    <output>
        <output-file value="C:\Users\asd95\Sumo\ture_city\osm.net.xml"/>
        <output.street-names value="true"/>
    </output>

    <processing>
        <geometry.min-radius.fix.railways value="false"/>
        <geometry.max-grade.fix value="false"/>
        <offset.disable-normalization value="true"/>
        <lefthand value="0"/>
    </processing>

    <junctions>
        <no-turnarounds value="true"/>
        <junctions.corner-detail value="5"/>
        <junctions.limit-turn-speed value="5.50"/>
        <rectangular-lane-cut value="0"/>
    </junctions>

    <pedestrian>
        <walkingareas value="0"/>
    </pedestrian>

</configuration>
-->

<net version="1.16" junctionCornerDetail="5" limitTurnSpeed="5.50" xmlns:xsi="http://www.w3.org/2001/XMLSchema-instance" xsi:noNamespaceSchemaLocation="http://sumo.dlr.de/xsd/net_file.xsd">

    <location netOffset="-320334.72,-2760963.38" convBoundary="0.00,18.79,482.17,362.30" origBoundary="121.220354,24.953419,121.225799,24.956654" projParameter="+proj=utm +zone=51 +ellps=WGS84 +datum=WGS84 +units=m +no_defs"/>

    <type id="highway.bridleway" priority="1" numLanes="1" speed="2.78" allow="pedestrian" oneway="1" width="2.00"/>
    <type id="highway.bus_guideway" priority="1" numLanes="1" speed="27.78" allow="bus" oneway="1"/>
    <type id="highway.cycleway" priority="1" numLanes="1" speed="5.56" allow="bicycle" oneway="0" width="1.00"/>
    <type id="highway.footway" priority="1" numLanes="1" speed="2.78" allow="pedestrian" oneway="1" width="2.00"/>
    <type id="highway.ford" priority="1" numLanes="1" speed="2.78" allow="army" oneway="0"/>
    <type id="highway.living_street" priority="2" numLanes="1" speed="2.78" disallow="tram rail_urban rail rail_electric rail_fast ship" oneway="0"/>
    <type id="highway.motorway" priority="14" numLanes="2" speed="39.44" allow="private emergency authority army vip passenger hov taxi bus coach delivery truck trailer motorcycle evehicle custom1 custom2" oneway="1"/>
    <type id="highway.motorway_link" priority="9" numLanes="1" speed="22.22" allow="private emergency authority army vip passenger hov taxi bus coach delivery truck trailer motorcycle evehicle custom1 custom2" oneway="1"/>
    <type id="highway.path" priority="1" numLanes="1" speed="5.56" allow="pedestrian bicycle" oneway="0" width="2.00"/>
    <type id="highway.pedestrian" priority="1" numLanes="1" speed="2.78" allow="pedestrian" oneway="1" width="2.00"/>
    <type id="highway.primary" priority="12" numLanes="2" speed="27.78" disallow="tram rail_urban rail rail_electric rail_fast ship" oneway="0"/>
    <type id="highway.primary_link" priority="7" numLanes="1" speed="22.22" disallow="tram rail_urban rail rail_electric rail_fast ship" oneway="0"/>
    <type id="highway.raceway" priority="15" numLanes="2" speed="83.33" allow="vip" oneway="0"/>
    <type id="highway.residential" priority="3" numLanes="1" speed="13.89" disallow="tram rail_urban rail rail_electric rail_fast ship" oneway="0"/>
    <type id="highway.secondary" priority="11" numLanes="1" speed="27.78" disallow="tram rail_urban rail rail_electric rail_fast ship" oneway="0"/>
    <type id="highway.secondary_link" priority="6" numLanes="1" speed="22.22" disallow="tram rail_urban rail rail_electric rail_fast ship" oneway="0"/>
    <type id="highway.service" priority="1" numLanes="1" speed="5.56" allow="pedestrian delivery bicycle" oneway="0"/>
    <type id="highway.stairs" priority="1" numLanes="1" speed="1.39" allow="pedestrian" oneway="1" width="2.00"/>
    <type id="highway.step" priority="1" numLanes="1" speed="1.39" allow="pedestrian" oneway="1" width="2.00"/>
    <type id="highway.steps" priority="1" numLanes="1" speed="1.39" allow="pedestrian" oneway="1" width="2.00"/>
    <type id="highway.tertiary" priority="10" numLanes="1" speed="22.22" disallow="tram rail_urban rail rail_electric rail_fast ship" oneway="0"/>
    <type id="highway.tertiary_link" priority="5" numLanes="1" speed="22.22" disallow="tram rail_urban rail rail_electric rail_fast ship" oneway="0"/>
    <type id="highway.track" priority="1" numLanes="1" speed="5.56" allow="pedestrian motorcycle moped bicycle" oneway="0"/>
    <type id="highway.trunk" priority="13" numLanes="2" speed="27.78" disallow="pedestrian bicycle tram rail_urban rail rail_electric rail_fast ship" oneway="0"/>
    <type id="highway.trunk_link" priority="8" numLanes="1" speed="22.22" disallow="pedestrian bicycle tram rail_urban rail rail_electric rail_fast ship" oneway="0"/>
    <type id="highway.unclassified" priority="4" numLanes="1" speed="13.89" disallow="tram rail_urban rail rail_electric rail_fast ship" oneway="0"/>
    <type id="highway.unsurfaced" priority="1" numLanes="1" speed="8.33" disallow="tram rail_urban rail rail_electric rail_fast ship" oneway="0"/>
    <type id="railway.highspeed" priority="21" numLanes="1" speed="69.44" allow="rail_fast" oneway="1"/>
    <type id="railway.light_rail" priority="19" numLanes="1" speed="27.78" allow="rail_urban" oneway="1"/>
    <type id="railway.preserved" priority="16" numLanes="1" speed="27.78" allow="rail" oneway="1"/>
    <type id="railway.rail" priority="20" numLanes="1" speed="44.44" allow="rail" oneway="1"/>
    <type id="railway.subway" priority="18" numLanes="1" speed="27.78" allow="rail_urban" oneway="1"/>
    <type id="railway.tram" priority="17" numLanes="1" speed="13.89" allow="tram" oneway="1"/>

    <edge id=":1256372669_0" function="internal">
        <lane id=":1256372669_0_0" index="0" disallow="tram rail_urban rail rail_electric rail_fast ship" speed="6.97" length="10.46" shape="360.55,120.14 357.82,121.84 356.21,123.78 355.72,125.95 356.35,128.36"/>
    </edge>
    <edge id=":1256372669_1" function="internal">
        <lane id=":1256372669_1_0" index="0" disallow="tram rail_urban rail rail_electric rail_fast ship" speed="22.22" length="14.84" shape="360.55,120.14 346.97,126.29"/>
        <lane id=":1256372669_1_1" index="1" disallow="tram rail_urban rail rail_electric rail_fast ship" speed="22.22" length="14.84" shape="359.17,117.26 345.71,123.34"/>
    </edge>
    <edge id=":1256372669_3" function="internal">
        <lane id=":1256372669_3_0" index="0" disallow="tram rail_urban rail rail_electric rail_fast ship" speed="8.66" length="3.96" shape="359.17,117.26 355.34,118.26"/>
    </edge>
    <edge id=":1256372669_4" function="internal">
        <lane id=":1256372669_4_0" index="0" disallow="tram rail_urban rail rail_electric rail_fast ship" speed="3.65" length="1.44" shape="359.17,117.26 357.74,117.06"/>
    </edge>
    <edge id=":1256372669_14" function="internal">
        <lane id=":1256372669_14_0" index="0" disallow="tram rail_urban rail rail_electric rail_fast ship" speed="8.66" length="13.02" shape="355.34,118.26 351.87,117.40 348.77,114.68 346.03,110.11"/>
    </edge>
    <edge id=":1256372669_15" function="internal">
        <lane id=":1256372669_15_0" index="0" disallow="tram rail_urban rail rail_electric rail_fast ship" speed="3.65" length="3.23" shape="357.74,117.06 357.03,116.51 357.05,115.61 357.78,114.37"/>
    </edge>
    <edge id=":1256372669_5" function="internal">
        <lane id=":1256372669_5_0" index="0" disallow="tram rail_urban rail rail_electric rail_fast ship" speed="6.50" length="9.09" shape="348.94,108.77 350.30,110.87 352.00,112.03 354.03,112.23 356.40,111.49"/>
    </edge>
    <edge id=":1256372669_6" function="internal">
        <lane id=":1256372669_6_0" index="0" disallow="tram rail_urban rail rail_electric rail_fast ship" speed="13.89" length="20.95" shape="348.94,108.77 356.35,128.36"/>
    </edge>
    <edge id=":1256372669_7" function="internal">
        <lane id=":1256372669_7_0" index="0" disallow="tram rail_urban rail rail_electric rail_fast ship" speed="8.62" length="17.04" shape="348.94,108.77 350.65,113.81 350.69,117.92 349.04,121.10 345.71,123.34"/>
    </edge>
    <edge id=":1256372669_8" function="internal">
        <lane id=":1256372669_8_0" index="0" disallow="tram rail_urban rail rail_electric rail_fast ship" speed="3.65" length="1.44" shape="348.94,108.77 348.72,110.19"/>
    </edge>
    <edge id=":1256372669_16" function="internal">
        <lane id=":1256372669_16_0" index="0" disallow="tram rail_urban rail rail_electric rail_fast ship" speed="3.65" length="3.23" shape="348.72,110.19 348.16,110.89 347.26,110.86 346.03,110.11"/>
    </edge>
    <edge id=":1256372669_9" function="internal">
        <lane id=":1256372669_9_0" index="0" disallow="tram rail_urban rail rail_electric rail_fast ship" speed="6.44" length="9.03" shape="343.21,117.45 345.34,116.16 346.52,114.51 346.75,112.49 346.03,110.11"/>
    </edge>
    <edge id=":1256372669_10" function="internal">
        <lane id=":1256372669_10_0" index="0" disallow="tram rail_urban rail rail_electric rail_fast ship" speed="22.22" length="14.54" shape="343.21,117.45 356.40,111.49"/>
        <lane id=":1256372669_10_1" index="1" disallow="tram rail_urban rail rail_electric rail_fast ship" speed="22.22" length="14.54" shape="344.46,120.40 357.78,114.37"/>
    </edge>
    <edge id=":1256372669_12" function="internal">
        <lane id=":1256372669_12_0" index="0" disallow="tram rail_urban rail rail_electric rail_fast ship" speed="8.57" length="2.94" shape="344.46,120.40 347.36,119.88"/>
    </edge>
    <edge id=":1256372669_13" function="internal">
        <lane id=":1256372669_13_0" index="0" disallow="tram rail_urban rail rail_electric rail_fast ship" speed="3.65" length="1.44" shape="344.46,120.40 345.88,120.66"/>
    </edge>
    <edge id=":1256372669_17" function="internal">
        <lane id=":1256372669_17_0" index="0" disallow="tram rail_urban rail rail_electric rail_fast ship" speed="8.57" length="12.99" shape="347.36,119.88 347.74,119.82 350.82,120.95 353.69,123.80 356.35,128.36"/>
    </edge>
    <edge id=":1256372669_18" function="internal">
        <lane id=":1256372669_18_0" index="0" disallow="tram rail_urban rail rail_electric rail_fast ship" speed="3.65" length="3.23" shape="345.88,120.66 346.56,121.24 346.51,122.14 345.71,123.34"/>
    </edge>
    <edge id=":1265124430_0" function="internal">
        <lane id=":1265124430_0_0" index="0" disallow="tram rail_urban rail rail_electric rail_fast ship" speed="6.34" length="9.04" shape="412.08,25.62 410.85,23.44 409.23,22.24 407.23,22.02 404.84,22.77"/>
    </edge>
    <edge id=":1265124430_1" function="internal">
        <lane id=":1265124430_1_0" index="0" disallow="tram rail_urban rail rail_electric rail_fast ship" speed="3.65" length="1.44" shape="403.45,19.89 404.88,20.09"/>
    </edge>
    <edge id=":1265124430_2" function="internal">
        <lane id=":1265124430_2_0" index="0" disallow="tram rail_urban rail rail_electric rail_fast ship" speed="3.65" length="3.23" shape="404.88,20.09 405.59,20.64 405.58,21.53 404.84,22.77"/>
    </edge>
    <edge id=":1265124461_0" function="internal">
        <lane id=":1265124461_0_0" index="0" disallow="tram rail_urban rail rail_electric rail_fast ship" speed="3.65" length="4.67" shape="193.99,113.08 192.58,112.78 191.91,112.18 191.99,111.29 192.81,110.10"/>
    </edge>
    <edge id=":1265124480_0" function="internal">
        <lane id=":1265124480_0_0" index="0" disallow="tram rail_urban rail rail_electric rail_fast ship" speed="6.65" length="9.04" shape="325.97,66.90 324.62,64.81 322.94,63.60 320.91,63.28 318.55,63.84"/>
    </edge>
    <edge id=":1265124480_1" function="internal">
        <lane id=":1265124480_1_0" index="0" disallow="tram rail_urban rail rail_electric rail_fast ship" speed="8.00" length="14.04" shape="325.97,66.90 324.86,63.22 325.18,60.06 326.94,57.41 330.12,55.27"/>
    </edge>
    <edge id=":1265124480_2" function="internal">
        <lane id=":1265124480_2_0" index="0" disallow="tram rail_urban rail rail_electric rail_fast ship" speed="3.65" length="4.67" shape="325.97,66.90 326.19,65.47 326.74,64.77 327.64,64.80 328.87,65.55"/>
    </edge>
    <edge id=":1265124480_3" function="internal">
        <lane id=":1265124480_3_0" index="0" disallow="tram rail_urban rail rail_electric rail_fast ship" speed="6.51" length="8.94" shape="331.52,58.15 329.49,59.51 328.37,61.20 328.16,63.21 328.87,65.55"/>
    </edge>
    <edge id=":1265124480_4" function="internal">
        <lane id=":1265124480_4_0" index="0" disallow="tram rail_urban rail rail_electric rail_fast ship" speed="13.89" length="14.16" shape="331.52,58.15 318.55,63.84"/>
    </edge>
    <edge id=":1265124480_5" function="internal">
        <lane id=":1265124480_5_0" index="0" disallow="tram rail_urban rail rail_electric rail_fast ship" speed="3.65" length="1.44" shape="331.52,58.15 330.09,57.95"/>
    </edge>
    <edge id=":1265124480_9" function="internal">
        <lane id=":1265124480_9_0" index="0" disallow="tram rail_urban rail rail_electric rail_fast ship" speed="3.65" length="3.23" shape="330.09,57.95 329.38,57.40 329.39,56.51 330.12,55.27"/>
    </edge>
    <edge id=":1265124480_6" function="internal">
        <lane id=":1265124480_6_0" index="0" disallow="tram rail_urban rail rail_electric rail_fast ship" speed="13.89" length="13.93" shape="317.37,60.86 330.12,55.27"/>
    </edge>
    <edge id=":1265124480_7" function="internal">
        <lane id=":1265124480_7_0" index="0" disallow="tram rail_urban rail rail_electric rail_fast ship" speed="8.12" length="3.78" shape="317.37,60.86 321.04,59.99"/>
    </edge>
    <edge id=":1265124480_8" function="internal">
        <lane id=":1265124480_8_0" index="0" disallow="tram rail_urban rail rail_electric rail_fast ship" speed="3.65" length="1.44" shape="317.37,60.86 318.78,61.16"/>
    </edge>
    <edge id=":1265124480_10" function="internal">
        <lane id=":1265124480_10_0" index="0" disallow="tram rail_urban rail rail_electric rail_fast ship" speed="8.12" length="10.21" shape="321.04,59.99 324.18,60.48 326.79,62.33 328.87,65.55"/>
    </edge>
    <edge id=":1265124480_11" function="internal">
        <lane id=":1265124480_11_0" index="0" disallow="tram rail_urban rail rail_electric rail_fast ship" speed="3.65" length="3.23" shape="318.78,61.16 319.45,61.76 319.37,62.65 318.55,63.84"/>
    </edge>
    <edge id=":2984625498_0" function="internal">
        <lane id=":2984625498_0_0" index="0" disallow="tram rail_urban rail rail_electric rail_fast ship" speed="3.65" length="4.67" shape="481.49,55.63 482.92,55.85 483.62,56.40 483.60,57.30 482.85,58.53"/>
    </edge>
    <edge id=":345180682_0" function="internal">
        <lane id=":345180682_0_0" index="0" disallow="tram rail_urban rail rail_electric rail_fast ship" speed="6.46" length="9.03" shape="437.58,89.39 436.24,87.30 434.56,86.16 432.53,85.96 430.17,86.71"/>
    </edge>
    <edge id=":345180682_1" function="internal">
        <lane id=":345180682_1_0" index="0" disallow="tram rail_urban rail rail_electric rail_fast ship" speed="13.89" length="20.94" shape="437.58,89.39 429.43,70.10"/>
    </edge>
    <edge id=":345180682_2" function="internal">
        <lane id=":345180682_2_0" index="0" disallow="tram rail_urban rail rail_electric rail_fast ship" speed="8.21" length="14.90" shape="437.58,89.39 435.74,84.44 435.20,80.55 435.96,77.70 438.03,75.91"/>
    </edge>
    <edge id=":345180682_3" function="internal">
        <lane id=":345180682_3_0" index="0" disallow="tram rail_urban rail rail_electric rail_fast ship" speed="22.22" length="11.71" shape="440.73,81.71 430.17,86.71"/>
        <lane id=":345180682_3_1" index="1" disallow="tram rail_urban rail rail_electric rail_fast ship" speed="22.22" length="11.71" shape="439.38,78.81 428.78,83.82"/>
    </edge>
    <edge id=":345180682_5" function="internal">
        <lane id=":345180682_5_0" index="0" disallow="tram rail_urban rail rail_electric rail_fast ship" speed="7.98" length="2.50" shape="439.38,78.81 436.91,79.20"/>
    </edge>
    <edge id=":345180682_6" function="internal">
        <lane id=":345180682_6_0" index="0" disallow="tram rail_urban rail rail_electric rail_fast ship" speed="3.65" length="1.44" shape="439.38,78.81 437.95,78.59"/>
    </edge>
    <edge id=":345180682_11" function="internal">
        <lane id=":345180682_11_0" index="0" disallow="tram rail_urban rail rail_electric rail_fast ship" speed="7.98" length="12.28" shape="436.91,79.20 436.68,79.23 434.12,77.92 431.70,74.88 429.43,70.10"/>
    </edge>
    <edge id=":345180682_12" function="internal">
        <lane id=":345180682_12_0" index="0" disallow="tram rail_urban rail rail_electric rail_fast ship" speed="3.65" length="3.23" shape="437.95,78.59 437.25,78.03 437.28,77.14 438.03,75.91"/>
    </edge>
    <edge id=":345180682_7" function="internal">
        <lane id=":345180682_7_0" index="0" disallow="tram rail_urban rail rail_electric rail_fast ship" speed="6.91" length="9.71" shape="426.01,78.05 428.28,76.57 429.61,74.75 429.99,72.59 429.43,70.10"/>
    </edge>
    <edge id=":345180682_8" function="internal">
        <lane id=":345180682_8_0" index="0" disallow="tram rail_urban rail rail_electric rail_fast ship" speed="22.22" length="11.78" shape="426.01,78.05 436.67,73.01"/>
        <lane id=":345180682_8_1" index="1" disallow="tram rail_urban rail rail_electric rail_fast ship" speed="22.22" length="11.78" shape="427.40,80.94 438.03,75.91"/>
    </edge>
    <edge id=":345180682_10" function="internal">
        <lane id=":345180682_10_0" index="0" disallow="tram rail_urban rail rail_electric rail_fast ship" speed="3.65" length="1.44" shape="427.40,80.94 428.82,81.14"/>
    </edge>
    <edge id=":345180682_13" function="internal">
        <lane id=":345180682_13_0" index="0" disallow="tram rail_urban rail rail_electric rail_fast ship" speed="3.65" length="3.23" shape="428.82,81.14 429.53,81.69 429.52,82.58 428.78,83.82"/>
    </edge>
    <edge id=":345180683_0" function="internal">
        <lane id=":345180683_0_0" index="0" disallow="tram rail_urban rail rail_electric rail_fast ship" speed="3.65" length="4.67" shape="222.32,175.79 220.90,175.53 220.22,174.95 220.27,174.05 221.06,172.85"/>
    </edge>
    <edge id=":6269227149_0" function="internal">
        <lane id=":6269227149_0_0" index="0" disallow="tram rail_urban rail rail_electric rail_fast ship" speed="22.22" length="14.40" shape="287.19,151.70 273.94,157.33"/>
        <lane id=":6269227149_0_1" index="1" disallow="tram rail_urban rail rail_electric rail_fast ship" speed="22.22" length="14.40" shape="285.94,148.75 272.69,154.38"/>
    </edge>
    <edge id=":6269227149_2" function="internal">
        <lane id=":6269227149_2_0" index="0" disallow="tram rail_urban rail rail_electric rail_fast ship" speed="8.68" length="3.71" shape="285.94,148.75 282.32,149.52"/>
    </edge>
    <edge id=":6269227149_3" function="internal">
        <lane id=":6269227149_3_0" index="0" disallow="tram rail_urban rail rail_electric rail_fast ship" speed="3.65" length="1.44" shape="285.94,148.75 284.52,148.48"/>
    </edge>
    <edge id=":6269227149_11" function="internal">
        <lane id=":6269227149_11_0" index="0" disallow="tram rail_urban rail rail_electric rail_fast ship" speed="8.68" length="13.14" shape="282.32,149.52 282.11,149.56 278.70,148.57 275.71,145.76 273.14,141.15"/>
    </edge>
    <edge id=":6269227149_12" function="internal">
        <lane id=":6269227149_12_0" index="0" disallow="tram rail_urban rail rail_electric rail_fast ship" speed="3.65" length="3.23" shape="284.52,148.48 283.84,147.90 283.90,147.01 284.69,145.81"/>
    </edge>
    <edge id=":6269227149_4" function="internal">
        <lane id=":6269227149_4_0" index="0" disallow="tram rail_urban rail rail_electric rail_fast ship" speed="6.51" length="9.04" shape="276.08,139.89 277.37,142.01 279.02,143.21 281.05,143.50 283.44,142.86"/>
    </edge>
    <edge id=":6269227149_5" function="internal">
        <lane id=":6269227149_5_0" index="0" disallow="tram rail_urban rail rail_electric rail_fast ship" speed="8.67" length="16.86" shape="276.08,139.89 277.64,144.94 277.59,149.04 275.94,152.18 272.69,154.38"/>
    </edge>
    <edge id=":6269227149_6" function="internal">
        <lane id=":6269227149_6_0" index="0" disallow="tram rail_urban rail rail_electric rail_fast ship" speed="3.65" length="4.67" shape="276.08,139.89 275.82,141.31 275.24,141.99 274.35,141.94 273.14,141.15"/>
    </edge>
    <edge id=":6269227149_7" function="internal">
        <lane id=":6269227149_7_0" index="0" disallow="tram rail_urban rail rail_electric rail_fast ship" speed="6.50" length="9.03" shape="270.19,148.49 272.30,147.21 273.50,145.56 273.78,143.54 273.14,141.15"/>
    </edge>
    <edge id=":6269227149_8" function="internal">
        <lane id=":6269227149_8_0" index="0" disallow="tram rail_urban rail rail_electric rail_fast ship" speed="22.22" length="14.40" shape="270.19,148.49 283.44,142.86"/>
        <lane id=":6269227149_8_1" index="1" disallow="tram rail_urban rail rail_electric rail_fast ship" speed="22.22" length="14.40" shape="271.44,151.44 284.69,145.81"/>
    </edge>
    <edge id=":6269227149_10" function="internal">
        <lane id=":6269227149_10_0" index="0" disallow="tram rail_urban rail rail_electric rail_fast ship" speed="3.65" length="1.44" shape="271.44,151.44 272.85,151.71"/>
    </edge>
    <edge id=":6269227149_13" function="internal">
        <lane id=":6269227149_13_0" index="0" disallow="tram rail_urban rail rail_electric rail_fast ship" speed="3.65" length="3.23" shape="272.85,151.71 273.54,152.28 273.48,153.18 272.69,154.38"/>
    </edge>
    <edge id=":6269227150_0" function="internal">
        <lane id=":6269227150_0_0" index="0" disallow="tram rail_urban rail rail_electric rail_fast ship" speed="6.61" length="9.17" shape="253.70,95.63 252.39,93.45 250.72,92.19 248.68,91.84 246.28,92.40"/>
    </edge>
    <edge id=":6269227150_1" function="internal">
        <lane id=":6269227150_1_0" index="0" disallow="tram rail_urban rail rail_electric rail_fast ship" speed="7.95" length="14.30" shape="253.70,95.63 252.69,91.83 253.15,88.65 255.08,86.08 258.50,84.13"/>
    </edge>
    <edge id=":6269227150_2" function="internal">
        <lane id=":6269227150_2_0" index="0" disallow="tram rail_urban rail rail_electric rail_fast ship" speed="3.65" length="4.67" shape="253.70,95.63 253.97,94.21 254.54,93.53 255.44,93.58 256.64,94.37"/>
    </edge>
    <edge id=":6269227150_3" function="internal">
        <lane id=":6269227150_3_0" index="0" disallow="tram rail_urban rail rail_electric rail_fast ship" speed="6.45" length="9.03" shape="259.68,87.11 257.52,88.34 256.29,89.96 256.00,91.97 256.64,94.37"/>
    </edge>
    <edge id=":6269227150_4" function="internal">
        <lane id=":6269227150_4_0" index="0" disallow="tram rail_urban rail rail_electric rail_fast ship" speed="13.89" length="14.40" shape="259.68,87.11 246.28,92.40"/>
    </edge>
    <edge id=":6269227150_5" function="internal">
        <lane id=":6269227150_5_0" index="0" disallow="tram rail_urban rail rail_electric rail_fast ship" speed="3.65" length="4.67" shape="259.68,87.11 258.27,86.81 257.60,86.21 257.68,85.32 258.50,84.13"/>
    </edge>
    <edge id=":6269227150_6" function="internal">
        <lane id=":6269227150_6_0" index="0" disallow="tram rail_urban rail rail_electric rail_fast ship" speed="13.89" length="14.40" shape="245.11,89.43 258.50,84.13"/>
    </edge>
    <edge id=":6269227150_7" function="internal">
        <lane id=":6269227150_7_0" index="0" disallow="tram rail_urban rail rail_electric rail_fast ship" speed="8.09" length="14.23" shape="245.11,89.43 248.85,88.54 252.02,89.07 254.62,91.01 256.64,94.37"/>
    </edge>
    <edge id=":6269227150_8" function="internal">
        <lane id=":6269227150_8_0" index="0" disallow="tram rail_urban rail rail_electric rail_fast ship" speed="3.65" length="4.67" shape="245.11,89.43 246.52,89.73 247.18,90.33 247.10,91.22 246.28,92.40"/>
    </edge>

    <edge id="A1" from="345180683" to="6269227149" name="中正路" priority="10" type="highway.tertiary">
        <lane id="A1_0" index="0" disallow="tram rail_urban rail rail_electric rail_fast ship" speed="22.22" length="54.73" shape="219.81,169.90 270.19,148.49">
            <param key="origId" value="297398516"/>
        </lane>
        <lane id="A1_1" index="1" disallow="tram rail_urban rail rail_electric rail_fast ship" speed="22.22" length="54.73" shape="221.06,172.85 271.44,151.44">
            <param key="origId" value="297398516"/>
        </lane>
    </edge>
    <edge id="A2" from="6269227149" to="1256372669" name="中正路" priority="10" type="highway.tertiary" shape="278.70,150.09 304.20,139.25 351.91,118.97">
        <lane id="A2_0" index="0" disallow="tram rail_urban rail rail_electric rail_fast ship" speed="22.22" length="64.95" shape="283.44,142.86 302.32,134.83 343.21,117.45">
            <param key="origId" value="297398516"/>
        </lane>
        <lane id="A2_1" index="1" disallow="tram rail_urban rail rail_electric rail_fast ship" speed="22.22" length="64.95" shape="284.69,145.81 303.57,137.78 344.46,120.40">
            <param key="origId" value="297398516"/>
        </lane>
    </edge>
    <edge id="A3" from="1256372669" to="345180682" name="中正路" priority="10" type="highway.tertiary">
        <lane id="A3_0" index="0" disallow="tram rail_urban rail rail_electric rail_fast ship" speed="22.22" length="77.23" shape="356.40,111.49 426.01,78.05">
            <param key="origId" value="203596479"/>
        </lane>
        <lane id="A3_1" index="1" disallow="tram rail_urban rail rail_electric rail_fast ship" speed="22.22" length="77.23" shape="357.78,114.37 427.40,80.94">
            <param key="origId" value="203596479"/>
        </lane>
    </edge>
    <edge id="A4" from="345180682" to="2984625498" name="中正路" priority="10" type="highway.tertiary">
        <lane id="A4_0" index="0" disallow="tram rail_urban rail rail_electric rail_fast ship" speed="22.22" length="47.96" shape="436.67,73.01 480.14,52.73">
            <param key="origId" value="203598733"/>
        </lane>
        <lane id="A4_1" index="1" disallow="tram rail_urban rail rail_electric rail_fast ship" speed="22.22" length="47.96" shape="438.03,75.91 481.49,55.63">
            <param key="origId" value="203598733"/>
        </lane>
    </edge>
    <edge id="B1" from="6269227149" to="345180683" name="中正路" priority="10" type="highway.tertiary">
        <lane id="B1_0" index="0" disallow="tram rail_urban rail rail_electric rail_fast ship" speed="22.22" length="54.73" shape="273.94,157.33 223.57,178.74">
            <param key="origId" value="297398516"/>
        </lane>
        <lane id="B1_1" index="1" disallow="tram rail_urban rail rail_electric rail_fast ship" speed="22.22" length="54.73" shape="272.69,154.38 222.32,175.79">
            <param key="origId" value="297398516"/>
        </lane>
    </edge>
    <edge id="B2" from="1256372669" to="6269227149" name="中正路" priority="10" type="highway.tertiary" shape="351.91,118.97 304.20,139.25 278.70,150.09">
        <lane id="B2_0" index="0" disallow="tram rail_urban rail rail_electric rail_fast ship" speed="22.22" length="64.95" shape="346.97,126.29 306.08,143.67 287.19,151.70">
            <param key="origId" value="297398516"/>
        </lane>
        <lane id="B2_1" index="1" disallow="tram rail_urban rail rail_electric rail_fast ship" speed="22.22" length="64.95" shape="345.71,123.34 304.83,140.72 285.94,148.75">
            <param key="origId" value="297398516"/>
        </lane>
    </edge>
    <edge id="B3" from="345180682" to="1256372669" name="中正路" priority="10" type="highway.tertiary">
        <lane id="B3_0" index="0" disallow="tram rail_urban rail rail_electric rail_fast ship" speed="22.22" length="77.23" shape="430.17,86.71 360.55,120.14">
            <param key="origId" value="203596479"/>
        </lane>
        <lane id="B3_1" index="1" disallow="tram rail_urban rail rail_electric rail_fast ship" speed="22.22" length="77.23" shape="428.78,83.82 359.17,117.26">
            <param key="origId" value="203596479"/>
        </lane>
    </edge>
    <edge id="B4" from="2984625498" to="345180682" name="中正路" priority="10" type="highway.tertiary">
        <lane id="B4_0" index="0" disallow="tram rail_urban rail rail_electric rail_fast ship" speed="22.22" length="47.96" shape="484.20,61.43 440.73,81.71">
            <param key="origId" value="203598733"/>
        </lane>
        <lane id="B4_1" index="1" disallow="tram rail_urban rail rail_electric rail_fast ship" speed="22.22" length="47.96" shape="482.85,58.53 439.38,78.81">
            <param key="origId" value="203598733"/>
        </lane>
    </edge>
    <edge id="C1" from="1265124461" to="6269227150" name="興建街" priority="3" type="highway.residential">
        <lane id="C1_0" index="0" disallow="tram rail_urban rail rail_electric rail_fast ship" speed="13.89" length="56.23" shape="192.81,110.10 245.11,89.43">
            <param key="origId" value="110955662"/>
        </lane>
    </edge>
    <edge id="C2" from="6269227150" to="1265124480" name="興建街" priority="3" type="highway.residential">
        <lane id="C2_0" index="0" disallow="tram rail_urban rail rail_electric rail_fast ship" speed="13.89" length="63.30" shape="258.50,84.13 317.37,60.86">
            <param key="origId" value="110955662"/>
        </lane>
    </edge>
    <edge id="C3" from="1265124480" to="1265124430" name="興建街" priority="3" type="highway.residential">
        <lane id="C3_0" index="0" disallow="tram rail_urban rail rail_electric rail_fast ship" speed="13.89" length="81.41" shape="330.12,55.27 403.45,19.89">
            <param key="origId" value="203754195"/>
        </lane>
    </edge>
    <edge id="D1" from="6269227150" to="1265124461" name="興建街" priority="3" type="highway.residential">